test/data/iowa240/Master_hse_der_ts_03_05_c_2.dss
// This is the OpenDSS Master file to solve the test system snapshot power flow.

Clear
new circuit.240_node_test_system        ! Initiate a new circuit called "240_node_test_system"

!--------------------------------------------------------!
Redirect original/Vsource.dss        ! Source definition
Redirect original/SubTransformer.dss ! Substation transformer definition
Redirect original/RegControl.dss     ! Tap changer control definition
Redirect high_side_equiv/Linecode.dss       ! Line configuration
Redirect high_side_equiv/Line.dss           ! Line segement definition
Redirect syntax_fixes/CircuitBreaker.dss ! Circuit breaker definition
Redirect time_series/LoadShape_03_05.dss			! Load shape definition
Redirect time_series/Load.dss           ! Load definition
Redirect original/Capacitor.dss      ! Shunt capacitor bank definition
Redirect der/DER.dss            ! Distributed energy resource definition

Redirect outages/outage_2.dss



!--------------------------Calculate---------------------!
Set VoltageBases = "69.0, 13.8, 0.208"  ! Set base voltage as 69 kV, 13.8 kV, 0.208 kV
CalcVoltageBases            ! Estimate the voltage base for each bus
solve                   ! Solve the circuit

new energymeter.circuit element=Transformer.Sub_Xfmr

BusCoords       original/Buscoords.dss

!-------------Show Snapshot Power Flow Result------------!
!Show Voltage LN Nodes
!Show currents
!Show power kva element
!Show convergence
!Show isolated
!Show kvbasemismatch
!Show losses
!Show overloads
!Show topology



!----------------- Plotting -----------------------!

!Set markCapacitors=yes  CapMarkersize=3
!Set markRegulators=yes  RegMarkersize=5
!Interpolate
!Plot Circuit Power Max=500 dots=n labels=n  C1=Blue  1ph=3   ! $00FF0000
!Plot Circuit voltage Max=0 dots=n n  C1=Blue C2=$FF00FF  1ph=3
!plot circuit Losses Max=1 dots=n labels=n subs=y C1=Blue
